Version 4
SHEET 1 1564 2008
WIRE -256 528 -256 496
WIRE -256 528 -304 528
WIRE -224 528 -256 528
WIRE -128 528 -160 528
WIRE 0 528 0 464
WIRE 0 528 -128 528
WIRE 144 528 0 528
WIRE -384 544 -512 544
WIRE 0 544 0 528
WIRE -832 576 -832 560
WIRE -512 576 -512 544
WIRE -384 576 -384 544
WIRE -304 624 -304 608
WIRE -272 624 -304 624
WIRE -304 640 -304 624
WIRE -272 640 -272 624
WIRE 144 640 144 608
WIRE 0 656 0 608
WIRE -512 672 -512 656
WIRE -384 672 -384 656
WIRE -384 672 -512 672
WIRE -240 720 -304 720
WIRE -224 720 -240 720
WIRE -128 720 -128 528
WIRE -128 720 -160 720
WIRE -240 752 -240 720
FLAG 0 656 0
FLAG 0 464 Vodc
IOPIN 0 464 Out
FLAG 144 640 0
FLAG -272 640 0
FLAG -256 496 tap1
IOPIN -256 496 Out
FLAG -240 752 tap2
IOPIN -240 752 Out
FLAG -832 656 0
FLAG -832 560 Vcc
IOPIN -832 560 Out
SYMBOL voltage -512 560 R0
WINDOW 3 -60 149 Left 2
WINDOW 123 0 0 Left 0
WINDOW 39 0 0 Left 0
SYMATTR Value SINE(0 {V*sqrt(2)} 60 0)
SYMATTR InstName V4
SYMBOL schottky -224 544 R270
WINDOW 0 32 32 VTop 2
WINDOW 3 0 32 VBottom 2
SYMATTR InstName D2
SYMATTR Value 1N5819
SYMATTR Description Diode
SYMATTR Type diode
SYMBOL cap -16 544 R0
SYMATTR InstName C3
SYMATTR Value 330µ
SYMBOL res 128 512 R0
SYMATTR InstName R1
SYMATTR Value 11.066
SYMBOL ind2 -400 560 R0
SYMATTR InstName L1
SYMATTR Value 10
SYMATTR Type ind
SYMATTR SpiceLine Rser=1m
SYMBOL ind2 -288 512 M0
SYMATTR InstName L2
SYMATTR Value 100m
SYMATTR Type ind
SYMATTR SpiceLine Rser=1m
SYMBOL ind2 -288 624 M0
SYMATTR InstName L3
SYMATTR Value 100m
SYMATTR Type ind
SYMATTR SpiceLine Rser=1m
SYMBOL schottky -224 736 R270
WINDOW 0 32 32 VTop 2
WINDOW 3 0 32 VBottom 2
SYMATTR InstName D1
SYMATTR Value 1N5819
SYMATTR Description Diode
SYMATTR Type diode
SYMBOL voltage -832 560 R0
WINDOW 123 0 0 Left 0
WINDOW 39 0 0 Left 0
SYMATTR InstName V1
SYMATTR Value 10
TEXT -568 760 Left 2 !.tran 10u
TEXT -384 504 Left 2 !K1 L1 L2 L3 1
TEXT -568 736 Left 2 !.param V = 120*0.95
