Version 4
SHEET 1 1564 2008
WIRE -240 16 -272 16
WIRE 48 48 16 48
WIRE 160 48 128 48
WIRE -32 64 -96 64
WIRE -96 80 -96 64
WIRE -32 80 -32 64
WIRE -1264 96 -1296 96
WIRE -1216 96 -1264 96
WIRE -672 96 -672 80
WIRE -352 96 -352 16
WIRE -320 96 -352 96
WIRE -240 96 -240 16
WIRE -240 96 -256 96
WIRE -1264 128 -1264 96
WIRE -752 128 -752 112
WIRE -960 192 -960 160
WIRE -864 192 -864 160
WIRE -672 192 -672 176
WIRE -592 192 -672 192
WIRE -32 192 -32 160
WIRE 16 192 16 48
WIRE 16 192 -32 192
WIRE 64 192 16 192
WIRE -1264 208 -1264 192
WIRE -672 208 -672 192
WIRE -464 208 -528 208
WIRE -352 208 -352 96
WIRE -352 208 -384 208
WIRE -336 208 -352 208
WIRE 224 208 224 48
WIRE 224 208 128 208
WIRE -752 224 -752 208
WIRE -592 224 -752 224
WIRE -240 224 -240 96
WIRE -240 224 -272 224
WIRE -224 224 -240 224
WIRE 64 224 32 224
WIRE -752 240 -752 224
WIRE -336 240 -368 240
WIRE -368 256 -368 240
WIRE 96 256 96 240
WIRE -1264 272 -1296 272
WIRE -1216 272 -1264 272
WIRE -304 272 -304 256
WIRE -1264 304 -1264 272
WIRE -1264 384 -1264 368
WIRE -256 528 -256 496
WIRE -256 528 -304 528
WIRE -224 528 -256 528
WIRE -128 528 -160 528
WIRE 0 528 0 464
WIRE 0 528 -128 528
WIRE 144 528 0 528
WIRE -384 544 -512 544
WIRE 0 544 0 528
WIRE -512 576 -512 544
WIRE -384 576 -384 544
WIRE -304 624 -304 608
WIRE -272 624 -304 624
WIRE -304 640 -304 624
WIRE -272 640 -272 624
WIRE 144 640 144 608
WIRE 0 656 0 608
WIRE -512 672 -512 656
WIRE -384 672 -384 656
WIRE -384 672 -512 672
WIRE -240 720 -304 720
WIRE -224 720 -240 720
WIRE -128 720 -128 528
WIRE -128 720 -160 720
WIRE -240 752 -240 720
FLAG -672 80 tap2
IOPIN -672 80 In
FLAG -560 240 +batt
IOPIN -560 240 In
FLAG -960 272 0
FLAG -864 160 +batt
IOPIN -864 160 Out
FLAG -864 272 0
FLAG -960 160 -batt
IOPIN -960 160 Out
FLAG 0 656 0
FLAG 0 464 Vodc
IOPIN 0 464 Out
FLAG -368 256 0
FLAG -304 272 -batt
IOPIN -304 272 In
FLAG -672 288 0
FLAG -752 112 tap1
IOPIN -752 112 In
FLAG -752 320 0
FLAG -560 176 -batt
IOPIN -560 176 In
FLAG -224 224 triang
IOPIN -224 224 Out
FLAG 144 640 0
FLAG -272 640 0
FLAG -256 496 tap1
IOPIN -256 496 Out
FLAG -240 752 tap2
IOPIN -240 752 Out
FLAG -1152 272 tap2
IOPIN -1152 272 Out
FLAG -1296 272 batt-
IOPIN -1296 272 Out
FLAG -1264 384 0
FLAG -1152 96 tap1
IOPIN -1152 96 Out
FLAG -1296 96 batt+
IOPIN -1296 96 Out
FLAG -1264 208 0
FLAG -304 192 +batt
IOPIN -304 192 In
FLAG 96 256 -batt
IOPIN 96 256 In
FLAG 96 176 +batt
IOPIN 96 176 In
FLAG -96 80 0
FLAG 32 224 triang
IOPIN 32 224 In
SYMBOL res -688 80 R0
SYMATTR InstName R+_div2
SYMATTR Value 1Meg
SYMBOL res -688 192 R0
SYMATTR InstName R-_div2
SYMATTR Value 10k
SYMBOL voltage -960 288 R180
WINDOW 123 0 0 Left 0
WINDOW 39 0 0 Left 0
SYMATTR InstName Batt1
SYMATTR Value 14.525
SYMBOL res -480 224 R270
WINDOW 0 32 56 VTop 2
WINDOW 3 0 56 VBottom 2
SYMATTR InstName R_inTriang
SYMATTR Value 390
SYMBOL cap -320 112 R270
WINDOW 0 32 32 VTop 2
WINDOW 3 0 32 VBottom 2
SYMATTR InstName C_fbTriang
SYMATTR Value 10µ
SYMATTR SpiceLine Rser=20m
SYMBOL voltage -864 176 R0
WINDOW 123 0 0 Left 0
WINDOW 39 0 0 Left 0
SYMATTR InstName Batt2
SYMATTR Value 14.525
SYMBOL voltage -512 560 R0
WINDOW 3 -122 195 Left 2
WINDOW 123 0 0 Left 0
WINDOW 39 0 0 Left 0
SYMATTR Value SINE(0 {V*sqrt(2)} 60 0)
SYMATTR InstName V4
SYMBOL schottky -224 544 R270
WINDOW 0 32 32 VTop 2
WINDOW 3 0 32 VBottom 2
SYMATTR InstName D2
SYMATTR Value 1N5819
SYMATTR Description Diode
SYMATTR Type diode
SYMBOL cap -16 544 R0
SYMATTR InstName C3
SYMATTR Value 330µ
SYMBOL res -768 112 R0
SYMATTR InstName R+_div1
SYMATTR Value 1Meg
SYMBOL res -368 32 R270
WINDOW 0 32 56 VTop 2
WINDOW 3 0 56 VBottom 2
SYMATTR InstName R_fbTriang
SYMATTR Value 4.7k
SYMBOL OpAmps\\opamp2 -304 160 R0
SYMATTR InstName U2
SYMATTR Value LF353/NS
SYMBOL OpAmps\\opamp2 -560 272 M180
SYMATTR InstName U1
SYMATTR Value LF353/NS
SYMBOL res -768 224 R0
SYMATTR InstName R-_div1
SYMATTR Value 10k
SYMBOL res 128 512 R0
SYMATTR InstName R1
SYMATTR Value 11.066
SYMBOL ind2 -400 560 R0
SYMATTR InstName L1
SYMATTR Value 10
SYMATTR Type ind
SYMATTR SpiceLine Rser=1m
SYMBOL ind2 -288 512 M0
SYMATTR InstName L2
SYMATTR Value 100m
SYMATTR Type ind
SYMATTR SpiceLine Rser=1m
SYMBOL ind2 -288 624 M0
SYMATTR InstName L3
SYMATTR Value 100m
SYMATTR Type ind
SYMATTR SpiceLine Rser=1m
SYMBOL schottky -224 736 R270
WINDOW 0 32 32 VTop 2
WINDOW 3 0 32 VBottom 2
SYMATTR InstName D1
SYMATTR Value 1N5819
SYMATTR Description Diode
SYMATTR Type diode
SYMBOL schottky -1216 288 R270
WINDOW 0 32 32 VTop 2
WINDOW 3 0 32 VBottom 2
SYMATTR InstName D3
SYMATTR Value 1N5819
SYMATTR Description Diode
SYMATTR Type diode
SYMBOL cap -1280 304 R0
SYMATTR InstName C1
SYMATTR Value 220µ
SYMBOL schottky -1152 80 R90
WINDOW 0 0 32 VBottom 2
WINDOW 3 32 32 VTop 2
SYMATTR InstName D4
SYMATTR Value 1N5819
SYMATTR Description Diode
SYMATTR Type diode
SYMBOL cap -1280 128 R0
SYMATTR InstName C4
SYMATTR Value 220µ
SYMBOL OpAmps\\opamp2 96 144 R0
SYMATTR InstName U3
SYMATTR Value LF353/NS
SYMBOL res 144 32 R90
WINDOW 0 0 56 VBottom 2
WINDOW 3 32 56 VTop 2
SYMATTR InstName R2
SYMATTR Value 1
SYMBOL cap 160 64 R270
WINDOW 0 32 32 VTop 2
WINDOW 3 0 32 VBottom 2
SYMATTR InstName C2
SYMATTR Value 1µ
SYMBOL res -48 64 R0
SYMATTR InstName R3
SYMATTR Value 1
TEXT -1952 -200 Left 2 !*//////////////////////////////////////////////////////////////////////\n* (C) National Semiconductor, Inc.\n* Models developed and under copyright by:\n* National Semiconductor, Inc.  \n \n*/////////////////////////////////////////////////////////////////////\n* Legal Notice: This material is intended for free software support.\n* The file may be copied, and distributed; however, reselling the \n*  material is illegal\n \n*////////////////////////////////////////////////////////////////////\n* For ordering or technical information on these models, contact:\n* National Semiconductor's Customer Response Center\n*                 7:00 A.M.--7:00 P.M.  U.S. Central Time\n*                                (800) 272-9959\n* For Applications support, contact the Internet address:\n*  amps-apps@galaxy.nsc.com\n* ///////////////////////////////////////////////////////////////////\n* User Notes:\n*\n* 1. Input resistance (Rin) for these JFET op amps is 1TOhm.  Rin is\n*    modeled by assuming the option GMIN=1TOhm.  If a different (non-\n*    default) GMIN value is needed, users may recalculate as follows:\n*    Rin=(R1||GMIN+R2||GMIN), where R1=R2,\n*    to maintain a consistent Rin model.\n \n*//////////////////////////////////////////////////////////\n*LF353 Wide Bandwidth Dual JFET-Input OP-AMP MACRO-MODEL\n*//////////////////////////////////////////////////////////\n*\n* connections:    non-inverting input\n*                 |   inverting input\n*                 |   |   positive power supply\n*                 |   |   |   negative power supply\n*                 |   |   |   |   output\n*                 |   |   |   |   |\n*                 |   |   |   |   |\n.SUBCKT LF353/NS  1   2  99  50  28\n*\n*Features:\n*Low supply current =                1.8mA\n*Wide bandwidth =                     4MHz\n*High slew rate =                   13V/uS\n*Low offset voltage =                 10mV\n*\n*NOTE: Model is for single device only and simulated\n*      supply current is 1/2 of total device current.\n*\n****************INPUT STAGE************** \n*\nIOS 2 1 25P\n*^Input offset current\nR1 1 3 1E12\nR2 3 2 1E12\nI1 99 4 100U\nJ1 5 2 4 JX\nJ2 6 7 4 JX\nR3 5 50 20K\nR4 6 50 20K\n*Fp2=12 MHz\nC4 5 6 3.31573E-13\n*\n***********COMMON MODE EFFECT***********\n*\nI2 99 50 1.7MA\n*^Quiescent supply current\nEOS 7 1 POLY(1) 16 49 5E-3 1\n*Input offset voltage.^\nR8 99 49 50K\nR9 49 50 50K\n*\n*********OUTPUT VOLTAGE LIMITING********\nV2 99 8 2.13\nD1 9 8 DX\nD2 10 9 DX\nV3 10 50 2.13\n*\n**************SECOND STAGE**************\n*\nEH 99 98 99 49 1\nF1 9 98 POLY(1) VA3 0 0 0 1.0985E7\nG1 98 9 5 6 1E-3\nR5 98 9 100MEG\nVA3 9 11 0\n*Fp1=40.3 HZ\nC3 98 11 39.493P\n*\n***************POLE STAGE***************\n*\n*Fp3=42 MHz\nG3 98 15 9 49 1E-6\nR12 98 15 1MEG\nC5 98 15 3.7894E-15\n*\n*********COMMON-MODE ZERO STAGE*********\n*\nG4 98 16 3 49 1E-8\nL2 98 17 31.831M\nR13 17 16 1K\n*\n**************OUTPUT STAGE**************\n*\nF6  99 50 VA7 1\nF5  99 23 VA8 1\nD5  21 23 DX\nVA7 99 21 0\nD6  23 99 DX\nE1  99 26 99 15 1\nVA8 26 27 0\nR16 27 28 35\nV5  28 25 0.1V\nD4  25 15 DX\nV4  24 28 0.1V\nD3  15 24 DX\n*\n***************MODELS USED**************\n*\n.MODEL DX D(IS=1E-15)\n.MODEL JX PJF(BETA=1.25E-5 VTO=-2.00 IS=50E-12)\n*\n.ENDS\n*$
TEXT -840 352 Left 2 !.tran 0 600m 500m
TEXT -464 752 Left 2 !K1 L1 L2 L3 1
TEXT -632 784 Left 2 !.param V = 120*0.95
TEXT -1424 24 Left 2 ;Se utilizan -batt y + batt para reducir tiempo de simulación
