Version 4
SHEET 1 900 680
WIRE 96 0 -16 0
WIRE -16 16 -16 0
WIRE -96 32 -112 32
WIRE 80 32 64 32
WIRE 80 48 80 32
WIRE 96 48 96 0
WIRE 96 48 80 48
WIRE -96 64 -192 64
WIRE 80 64 80 48
WIRE 80 64 64 64
WIRE 448 64 336 64
WIRE 592 64 544 64
WIRE 608 64 592 64
WIRE 736 64 688 64
WIRE 832 64 736 64
WIRE 832 80 832 64
WIRE -96 96 -112 96
WIRE 80 96 64 96
WIRE 80 112 80 96
WIRE 96 112 80 112
WIRE -192 128 -192 64
WIRE -96 128 -192 128
WIRE 80 128 80 112
WIRE 80 128 64 128
WIRE 528 128 528 112
WIRE 528 128 480 128
WIRE 80 176 64 176
WIRE 80 208 64 208
WIRE -192 224 -192 128
WIRE -96 224 -192 224
WIRE -96 256 -128 256
WIRE 96 256 64 256
WIRE 160 256 96 256
WIRE 240 256 224 256
WIRE 336 256 320 256
WIRE -128 288 -128 256
WIRE -16 288 -16 272
FLAG 832 160 0
FLAG 832 64 vOO
IOPIN 832 64 Out
FLAG 736 128 0
FLAG 592 128 0
FLAG 480 208 0
FLAG -16 288 0
FLAG -128 288 0
FLAG 144 208 0
FLAG 160 176 0
FLAG -112 96 vOO
IOPIN -112 96 In
FLAG -112 32 vOO
IOPIN -112 32 In
FLAG 96 112 Vpwm
IOPIN 96 112 Out
FLAG -16 -80 0
FLAG 336 144 0
FLAG -192 224 ref
IOPIN -192 224 Out
FLAG 336 256 ref
IOPIN 336 256 Out
FLAG 96 336 0
SYMBOL res 816 64 R0
SYMATTR InstName R1
SYMATTR Value 3.5
SYMBOL cap 720 64 R0
SYMATTR InstName C1
SYMATTR Value 1µ
SYMATTR SpiceLine Rser=1m
SYMBOL ind 592 80 R270
WINDOW 0 32 56 VTop 2
WINDOW 3 5 56 VBottom 2
SYMATTR InstName L1
SYMATTR Value 20µ
SYMATTR SpiceLine Rser=56m
SYMBOL schottky 608 128 R180
WINDOW 0 24 64 Left 2
WINDOW 3 24 0 Left 2
SYMATTR InstName D1
SYMATTR Value 1N5819
SYMATTR Description Diode
SYMATTR Type diode
SYMBOL nmos 448 112 R270
SYMATTR InstName M1
SYMATTR Value IRFZ44N
SYMBOL bv 480 112 R0
SYMATTR InstName B1
SYMATTR Value V=70*V(Vpwm)
SYMBOL Misc\\TL494_ -16 144 R0
SYMATTR InstName U1
SYMBOL res 176 160 R90
WINDOW 0 0 56 VBottom 2
WINDOW 3 32 56 VTop 2
SYMATTR InstName R2
SYMATTR Value 6.8k
SYMBOL cap 144 192 R90
WINDOW 0 0 32 VBottom 2
WINDOW 3 32 32 VTop 2
SYMATTR InstName C2
SYMATTR Value 1n
SYMBOL voltage -16 16 R180
WINDOW 0 24 96 Left 2
WINDOW 3 24 16 Left 2
WINDOW 123 0 0 Left 0
WINDOW 39 0 0 Left 0
SYMATTR InstName V1
SYMATTR Value 15.61
SYMBOL voltage 336 48 R0
WINDOW 123 0 0 Left 0
WINDOW 39 0 0 Left 0
SYMATTR InstName V2
SYMATTR Value SINE(15.61 7.19 60 1m)
SYMBOL cap 224 240 R90
WINDOW 0 0 32 VBottom 2
WINDOW 3 32 32 VTop 2
SYMATTR InstName C3
SYMATTR Value 1µ
SYMBOL res 80 240 R0
SYMATTR InstName R3
SYMATTR Value 1k
SYMBOL res 336 240 R90
WINDOW 0 0 56 VBottom 2
WINDOW 3 32 56 VTop 2
SYMATTR InstName R4
SYMATTR Value 680
TEXT -56 344 Left 2 !.tran 20m uic
