Version 4
SHEET 1 880 680
WIRE -160 64 -272 64
WIRE -272 80 -272 64
WIRE -352 96 -368 96
WIRE -176 96 -192 96
WIRE -176 112 -176 96
WIRE -160 112 -160 64
WIRE -160 112 -176 112
WIRE -352 128 -448 128
WIRE -176 128 -176 112
WIRE -176 128 -192 128
WIRE 192 128 80 128
WIRE 336 128 288 128
WIRE 352 128 336 128
WIRE 480 128 432 128
WIRE 576 128 480 128
WIRE 576 144 576 128
WIRE -352 160 -368 160
WIRE -176 160 -192 160
WIRE -176 176 -176 160
WIRE -160 176 -176 176
WIRE -448 192 -448 128
WIRE -448 192 -496 192
WIRE -352 192 -448 192
WIRE -176 192 -176 176
WIRE -176 192 -192 192
WIRE 272 192 272 176
WIRE 272 192 224 192
WIRE -496 208 -496 192
WIRE -176 240 -192 240
WIRE -176 272 -192 272
WIRE -496 288 -528 288
WIRE -352 288 -496 288
WIRE -352 320 -384 320
WIRE -160 320 -192 320
WIRE -96 320 -160 320
WIRE -16 320 -32 320
WIRE 80 320 64 320
WIRE -384 352 -384 320
WIRE -272 352 -272 336
FLAG 576 224 0
FLAG 576 128 vOO
IOPIN 576 128 Out
FLAG 480 192 0
FLAG 336 192 0
FLAG 224 272 0
FLAG -272 352 0
FLAG -384 352 0
FLAG -112 272 0
FLAG -96 240 0
FLAG -368 160 vOO
IOPIN -368 160 In
FLAG -368 96 vOO
IOPIN -368 96 In
FLAG -160 176 Vpwm
IOPIN -160 176 Out
FLAG -272 -16 0
FLAG 80 208 0
FLAG -528 288 ref
IOPIN -528 288 Out
FLAG 80 320 ref
IOPIN 80 320 Out
FLAG -160 400 0
FLAG -496 112 0
SYMBOL res 560 128 R0
SYMATTR InstName R1
SYMATTR Value 5.35
SYMBOL cap 464 128 R0
SYMATTR InstName C1
SYMATTR Value 1µ
SYMATTR SpiceLine Rser=1m
SYMBOL ind 336 144 R270
WINDOW 0 32 56 VTop 2
WINDOW 3 5 56 VBottom 2
SYMATTR InstName L1
SYMATTR Value 20µ
SYMATTR SpiceLine Rser=56m
SYMBOL schottky 352 192 R180
WINDOW 0 24 64 Left 2
WINDOW 3 24 0 Left 2
SYMATTR InstName D1
SYMATTR Value 1N5819
SYMATTR Description Diode
SYMATTR Type diode
SYMBOL nmos 192 176 R270
SYMATTR InstName M1
SYMATTR Value IRFZ44N
SYMBOL bv 224 176 R0
SYMATTR InstName B1
SYMATTR Value V=70*V(Vpwm)
SYMBOL Misc\\TL494_ -272 208 R0
SYMATTR InstName U1
SYMBOL res -80 224 R90
WINDOW 0 0 56 VBottom 2
WINDOW 3 32 56 VTop 2
SYMATTR InstName R2
SYMATTR Value 6.8k
SYMBOL cap -112 256 R90
WINDOW 0 0 32 VBottom 2
WINDOW 3 32 32 VTop 2
SYMATTR InstName C2
SYMATTR Value 1n
SYMBOL voltage -272 80 R180
WINDOW 0 24 96 Left 2
WINDOW 3 24 16 Left 2
WINDOW 123 0 0 Left 0
WINDOW 39 0 0 Left 0
SYMATTR InstName V1
SYMATTR Value 15.61
SYMBOL voltage 80 112 R0
WINDOW 123 0 0 Left 0
WINDOW 39 0 0 Left 0
SYMATTR InstName V2
SYMATTR Value SINE(15.61 7.19 60 1m)
SYMBOL cap -32 304 R90
WINDOW 0 0 32 VBottom 2
WINDOW 3 32 32 VTop 2
SYMATTR InstName C3
SYMATTR Value 1µ
SYMBOL res -176 304 R0
SYMATTR InstName R3
SYMATTR Value 1k
SYMBOL res 80 304 R90
WINDOW 0 0 56 VBottom 2
WINDOW 3 32 56 VTop 2
SYMATTR InstName R4
SYMATTR Value 680
SYMBOL res -512 192 R0
SYMATTR InstName R5
SYMATTR Value 51k
SYMBOL res -512 96 R0
SYMATTR InstName R6
SYMATTR Value 100k
TEXT -312 408 Left 2 !.tran 20m uic
