Version 4
SHEET 1 1564 2008
WIRE -528 416 -528 400
WIRE -416 416 -528 416
WIRE -528 432 -528 416
WIRE -128 432 -208 432
WIRE 16 432 -32 432
WIRE 32 432 16 432
WIRE 160 432 112 432
WIRE 256 432 160 432
WIRE -608 448 -624 448
WIRE -432 448 -448 448
WIRE -208 448 -208 432
WIRE 256 448 256 432
WIRE -432 464 -432 448
WIRE -416 464 -416 416
WIRE -416 464 -432 464
WIRE -608 480 -672 480
WIRE -432 480 -432 464
WIRE -432 480 -448 480
WIRE -48 496 -48 480
WIRE -48 496 -96 496
WIRE -608 512 -624 512
WIRE -432 512 -448 512
WIRE -432 528 -432 512
WIRE -416 528 -432 528
WIRE -608 544 -672 544
WIRE -432 544 -432 528
WIRE -432 544 -448 544
WIRE -1104 560 -1104 544
WIRE -432 592 -448 592
WIRE -432 624 -448 624
WIRE -608 672 -640 672
WIRE -368 672 -448 672
WIRE -640 704 -640 672
WIRE -528 704 -528 688
FLAG -1104 640 0
FLAG -1104 544 Vcc
IOPIN -1104 544 Out
FLAG -528 704 0
FLAG -528 400 Vcc
IOPIN -528 400 In
FLAG -640 704 0
FLAG -368 624 0
FLAG -352 592 0
FLAG -368 672 0
FLAG 256 528 0
FLAG 256 432 vOO
IOPIN 256 432 Out
FLAG 160 496 0
FLAG -208 528 0
FLAG -624 512 vOO
IOPIN -624 512 In
FLAG -752 480 0
FLAG -624 448 vOO
IOPIN -624 448 In
FLAG -752 544 0
FLAG 16 496 0
FLAG -416 528 Vpwm
IOPIN -416 528 Out
FLAG -96 576 0
SYMBOL voltage -1104 544 R0
WINDOW 123 0 0 Left 0
WINDOW 39 0 0 Left 0
SYMATTR InstName V1
SYMATTR Value 20
SYMBOL Misc\\TL494_ -528 560 R0
SYMATTR InstName U1
SYMBOL res -336 576 R90
WINDOW 0 0 56 VBottom 2
WINDOW 3 32 56 VTop 2
SYMATTR InstName R2
SYMATTR Value 6.8k
SYMBOL cap -368 608 R90
WINDOW 0 0 32 VBottom 2
WINDOW 3 32 32 VTop 2
SYMATTR InstName C1
SYMATTR Value 1n
SYMBOL res 240 432 R0
SYMATTR InstName R1
SYMATTR Value 2.5k
SYMBOL cap 144 432 R0
SYMATTR InstName C2
SYMATTR Value 2.2µ
SYMATTR SpiceLine Rser=1m
SYMBOL voltage -208 432 R0
WINDOW 123 0 0 Left 0
WINDOW 39 0 0 Left 0
SYMATTR InstName V4
SYMATTR Value 10.4
SYMBOL voltage -656 480 R90
WINDOW 0 -32 56 VBottom 2
WINDOW 3 32 56 VTop 2
WINDOW 123 0 0 Left 0
WINDOW 39 0 0 Left 0
SYMATTR InstName V2
SYMATTR Value 3.3
SYMBOL voltage -656 544 R90
WINDOW 0 -32 56 VBottom 2
WINDOW 3 32 56 VTop 2
WINDOW 123 0 0 Left 0
WINDOW 39 0 0 Left 0
SYMATTR InstName V3
SYMATTR Value 3.3
SYMBOL ind 16 448 R270
WINDOW 0 32 56 VTop 2
WINDOW 3 5 56 VBottom 2
SYMATTR InstName L1
SYMATTR Value 20µ
SYMATTR SpiceLine Rser=56m
SYMBOL schottky 32 496 R180
WINDOW 0 24 64 Left 2
WINDOW 3 24 0 Left 2
SYMATTR InstName D1
SYMATTR Value 1N5819
SYMATTR Description Diode
SYMATTR Type diode
SYMBOL nmos -128 480 R270
SYMATTR InstName M1
SYMBOL bv -96 480 R0
SYMATTR InstName B1
SYMATTR Value V=4*V(Vpwm)
TEXT -568 760 Left 2 !.tran 20m uic
