Version 4
SHEET 1 884 680
WIRE -64 0 -288 0
WIRE -64 64 -64 0
WIRE -432 80 -448 80
WIRE -272 80 -304 80
WIRE 128 80 128 64
WIRE 432 80 320 80
WIRE 576 80 576 32
WIRE 576 80 528 80
WIRE 592 80 576 80
WIRE 720 80 672 80
WIRE 816 80 720 80
WIRE 816 96 816 80
WIRE -64 128 -304 128
WIRE -432 144 -448 144
WIRE 512 144 512 128
WIRE 512 144 448 144
WIRE 512 160 512 144
WIRE -432 176 -448 176
WIRE 448 176 448 144
WIRE -208 192 -304 192
WIRE -288 208 -288 160
WIRE -64 208 -64 192
WIRE -64 208 -288 208
WIRE -272 224 -304 224
WIRE -272 240 -272 224
WIRE 448 256 448 240
WIRE 512 256 512 240
WIRE 512 256 448 256
WIRE 512 272 512 256
FLAG 816 176 0
FLAG 816 80 vOO
IOPIN 816 80 Out
FLAG 720 144 0
FLAG 576 144 0
FLAG 320 160 0
FLAG -272 240 0
FLAG -448 144 PWM_o
IOPIN -448 144 Out
FLAG 512 272 PWM_o
IOPIN 512 272 In
FLAG -272 80 PWM_in
IOPIN -272 80 In
FLAG 128 160 0
FLAG 128 64 PWM_in
IOPIN 128 64 Out
FLAG -768 256 0
FLAG -208 192 12v0
IOPIN -208 192 In
FLAG -768 176 5v0
IOPIN -768 176 Out
FLAG -896 256 0
FLAG -896 176 12v0
IOPIN -896 176 Out
FLAG -448 176 Vs
IOPIN -448 176 Out
FLAG 576 32 Vs
IOPIN 576 32 Out
FLAG -448 80 12v0
IOPIN -448 80 In
SYMBOL res 800 80 R0
SYMATTR InstName R1
SYMATTR Value 100
SYMBOL cap 704 80 R0
SYMATTR InstName C1
SYMATTR Value 1µ
SYMATTR SpiceLine Rser=1m
SYMBOL ind 576 96 R270
WINDOW 0 32 56 VTop 2
WINDOW 3 5 56 VBottom 2
SYMATTR InstName L1
SYMATTR Value 20µ
SYMATTR SpiceLine Rser=56m
SYMBOL schottky 592 144 R180
WINDOW 0 24 64 Left 2
WINDOW 3 24 0 Left 2
SYMATTR InstName D1
SYMATTR Value 1N5819
SYMATTR Description Diode
SYMATTR Type diode
SYMBOL nmos 432 128 R270
SYMATTR InstName M1
SYMATTR Value IRFZ44N
SYMBOL voltage 320 64 R0
WINDOW 123 0 0 Left 0
WINDOW 39 0 0 Left 0
SYMATTR InstName V1
SYMATTR Value 10
SYMBOL voltage 128 64 R0
WINDOW 123 0 0 Left 0
WINDOW 39 0 0 Left 0
SYMATTR InstName V2
SYMATTR Value PULSE(0 5 0 0 0 6.25u 12.5u)
SYMBOL voltage -768 160 R0
WINDOW 123 0 0 Left 0
WINDOW 39 0 0 Left 0
SYMATTR InstName V3
SYMATTR Value 5
SYMBOL voltage -896 160 R0
WINDOW 123 0 0 Left 0
WINDOW 39 0 0 Left 0
SYMATTR InstName V4
SYMATTR Value 5
SYMBOL res 496 144 R0
SYMATTR InstName R2
SYMATTR Value 5
SYMBOL diode -80 64 R0
SYMATTR InstName D2
SYMBOL cap -80 128 R0
SYMATTR InstName C2
SYMBOL AutoGenerated\\lm5104 -368 128 R0
SYMATTR InstName U1
SYMBOL schottky 432 176 R0
SYMATTR InstName D3
SYMATTR Value 1N5819
SYMATTR Description Diode
SYMATTR Type diode
TEXT -552 288 Left 2 !.tran 1m uic
