Version 4
SHEET 1 884 680
WIRE -80 16 -288 16
WIRE -80 32 -80 16
WIRE -272 64 -304 64
WIRE 128 80 128 64
WIRE 432 80 320 80
WIRE 576 80 528 80
WIRE 592 80 576 80
WIRE 720 80 672 80
WIRE 816 80 720 80
WIRE -288 96 -288 16
WIRE -288 96 -304 96
WIRE -272 96 -288 96
WIRE 816 96 816 80
WIRE -432 112 -464 112
WIRE -80 128 -80 96
WIRE -80 128 -304 128
WIRE -432 144 -448 144
WIRE -448 160 -448 144
WIRE -448 160 -464 160
WIRE -144 160 -304 160
WIRE -464 176 -464 160
WIRE -448 176 -448 160
WIRE -432 176 -448 176
WIRE -208 192 -304 192
WIRE -144 192 -144 160
WIRE -80 192 -144 192
WIRE 512 192 512 128
WIRE -448 208 -448 176
WIRE -432 208 -448 208
WIRE -272 224 -304 224
WIRE -272 240 -272 224
WIRE -80 240 -80 192
FLAG 816 176 0
FLAG 816 80 vOO
IOPIN 816 80 Out
FLAG 720 144 0
FLAG 576 144 0
FLAG 320 160 0
FLAG -464 176 0
FLAG -272 240 0
FLAG -272 96 12v0
IOPIN -272 96 In
FLAG -464 112 PWM_o
IOPIN -464 112 Out
FLAG 512 192 PWM_o
IOPIN 512 192 In
FLAG -272 64 PWM_in
IOPIN -272 64 In
FLAG 128 160 0
FLAG 128 64 PWM_in
IOPIN 128 64 Out
FLAG -768 256 0
FLAG -80 240 Vs
IOPIN -80 240 In
FLAG 576 80 Vs
IOPIN 576 80 Out
FLAG -208 192 5v0
IOPIN -208 192 In
FLAG -768 176 5v0
IOPIN -768 176 Out
FLAG -896 256 0
FLAG -896 176 12v0
IOPIN -896 176 Out
SYMBOL res 800 80 R0
SYMATTR InstName R1
SYMATTR Value 100
SYMBOL cap 704 80 R0
SYMATTR InstName C1
SYMATTR Value 1µ
SYMATTR SpiceLine Rser=1m
SYMBOL ind 576 96 R270
WINDOW 0 32 56 VTop 2
WINDOW 3 5 56 VBottom 2
SYMATTR InstName L1
SYMATTR Value 20µ
SYMATTR SpiceLine Rser=56m
SYMBOL schottky 592 144 R180
WINDOW 0 24 64 Left 2
WINDOW 3 24 0 Left 2
SYMATTR InstName D1
SYMATTR Value 1N5819
SYMATTR Description Diode
SYMATTR Type diode
SYMBOL nmos 432 128 R270
SYMATTR InstName M1
SYMATTR Value IRFZ44N
SYMBOL voltage 320 64 R0
WINDOW 123 0 0 Left 0
WINDOW 39 0 0 Left 0
SYMATTR InstName V1
SYMATTR Value 10
SYMBOL IR2110 -368 144 R0
SYMATTR InstName U1
SYMBOL cap -96 128 R0
SYMATTR InstName C2
SYMATTR Value 0.47µ
SYMBOL zener -96 32 R0
SYMATTR InstName D2
SYMATTR Value TDZ6_8B
SYMATTR Description Diode
SYMATTR Type diode
SYMBOL voltage 128 64 R0
WINDOW 123 0 0 Left 0
WINDOW 39 0 0 Left 0
SYMATTR InstName V2
SYMATTR Value PULSE(0 5 0 0 0 6.25u 12.5u)
SYMBOL voltage -768 160 R0
WINDOW 123 0 0 Left 0
WINDOW 39 0 0 Left 0
SYMATTR InstName V3
SYMATTR Value 5
SYMBOL voltage -896 160 R0
WINDOW 123 0 0 Left 0
WINDOW 39 0 0 Left 0
SYMATTR InstName V4
SYMATTR Value 5
TEXT -550 284 Left 2 !.tran 1m uic
