Version 4
SHEET 1 880 680
WIRE 368 384 272 384
WIRE 464 384 432 384
WIRE 512 384 512 320
WIRE 512 384 464 384
WIRE 640 384 512 384
WIRE 736 384 640 384
WIRE 144 400 -64 400
WIRE 640 400 640 384
WIRE -64 432 -64 400
WIRE 144 432 144 400
WIRE 272 480 272 464
WIRE 320 480 272 480
WIRE 272 496 272 480
WIRE 640 512 640 464
WIRE 736 512 736 464
WIRE -64 544 -64 512
WIRE 144 544 144 512
WIRE 368 576 272 576
WIRE 464 576 464 384
WIRE 464 576 432 576
FLAG -64 544 0
FLAG 144 544 0
FLAG 320 480 0
FLAG 512 320 Vo_rect
IOPIN 512 320 Out
FLAG 640 512 0
FLAG 736 512 0
SYMBOL ind2 160 528 R180
WINDOW 0 36 80 Left 2
WINDOW 3 36 40 Left 2
SYMATTR InstName L1
SYMATTR Value 4.4444444
SYMATTR SpiceLine Rser=1
SYMBOL voltage -64 416 R0
WINDOW 3 -122 195 Left 2
WINDOW 123 0 0 Left 0
WINDOW 39 0 0 Left 0
SYMATTR Value SINE(0 155.6 60 0 0 90)
SYMATTR InstName V_red
SYMBOL schottky 368 400 R270
WINDOW 0 32 32 VTop 2
WINDOW 3 0 32 VBottom 2
SYMATTR InstName D1
SYMATTR Value 1N5819
SYMATTR Description Diode
SYMATTR Type diode
SYMBOL cap 624 400 R0
SYMATTR InstName C1
SYMATTR Value 100µ
SYMBOL ind2 288 480 R180
WINDOW 0 36 80 Left 2
WINDOW 3 36 40 Left 2
SYMATTR InstName L2
SYMATTR Value 100m
SYMBOL ind2 288 592 R180
WINDOW 0 36 80 Left 2
WINDOW 3 36 40 Left 2
SYMATTR InstName L3
SYMATTR Value 100m
SYMBOL schottky 368 592 R270
WINDOW 0 32 32 VTop 2
WINDOW 3 0 32 VBottom 2
SYMATTR InstName D2
SYMATTR Value 1N5819
SYMATTR Description Diode
SYMATTR Type diode
SYMBOL res 720 368 R0
SYMATTR InstName R_min_16V
SYMATTR Value 28.32951
TEXT 160 368 Left 2 !K L1 L2 L3 1
TEXT -188 626 Left 2 !.tran 100m uic
